datafiles/unit/opflow/objective/OF_unittestx2.m
function mpc = OF-unittestx2
mpc.version = '2';
mpc.baseMVA =  100.00;

%% bus data
mpc.bus = [
1 1 0.00 0.00 0.00 0.00 1 1.0000000 -0.000056 138.00 1 1.100 0.900
2 1 0.00 0.00 0.00 10.00 1 1.0000000 -0.000056 138.00 1 1.100 0.900
3 3 0.00 0.00 0.00 0.00 1 1.0000000 0.000001 13.80 1 1.100 0.900
4 1 10.00 10.00 0.00 0.00  1 0.9999990 -0.000113 138.00 1 1.100 0.900
5 1 0.00 0.00 0.00 0.00 1 0.9999990 -0.000113 138.00 1 1.100 0.900
6 1 0.00 0.00 0.00 10.00 1 1.0000000 -0.000056 138.00 1 1.100 0.900
7 2 0.00 0.00 0.00 0.00 1 1.0000000 0.000001 13.80 1 1.100 0.900
8 1 10.00 10.00 0.00 0.00 1 0.9999990 -0.000113 138.00 1 1.100 0.900
9 1 0.00 0.00 0.00 0.00 1 0.9999990 -0.000113 138.00 1 1.100 0.900
];

%% generator data
mpc.gen = [
3 10.00 0.00 9900.00 -9900.00 1.0000 100.00 1 10.00 10.00 0.00 0.00 0.00 0.00 0.00 0.00 0 0 0 010.0000
7 10.00 0.00 9900.00 -9900.00 1.0000 100.00 1 10.00 10.00 0.00 0.00 0.00 0.00 0.00 0.00 0 0 0 010.0000
];

%% generator cost data
mpc.gencost = [
2 0 0 3 0.010 0.100 8.00 0.0000 
2 0 0 3 0.010 0.100 8.00 0.0000 
];

%% branch data
mpc.branch = [
1 2 0.000000 0.000010 0.00000 0.00 0.00 0.00 0.00000 0.000 1 0.00 0.00 0.00 0.00 0.00 0.00
2 3 0.000000 0.000010 0.00000 0.00 0.00 0.00 1.00000 0.000 1 0.00 0.00 -10.00 -0.00 10.00 0.00
2 4 0.000000 0.000010 0.00000 0.00 0.00 0.00 0.00000 0.000 1 0.00 0.00 10.00 10.00 -10.00 -10.00
4 5 0.000000 0.000010 0.00000 0.00 0.00 0.00 0.00000 0.000 1 0.00 0.00 0.00 0.00 0.00 0.00
5 6 0.000000 0.000010 0.00000 0.00 0.00 0.00 0.00000 0.000 1 0.00 0.00 0.00 0.00 0.00 0.00
6 7 0.000000 0.000010 0.00000 0.00 0.00 0.00 1.00000 0.000 1 0.00 0.00 -10.00 -0.00 10.00 0.00
6 8 0.000000 0.000010 0.00000 0.00 0.00 0.00 0.00000 0.000 1 0.00 0.00 10.00 10.00 -10.00 -10.00
8 9 0.000000 0.000010 0.00000 0.00 0.00 0.00 0.00000 0.000 1 0.00 0.00 0.00 0.00 0.00 0.00
];

%% bus names
mpc.bus_name = {
'1';
'2';
'3';
'4';
'5';
'6';
'7';
'8';
'9';
};

%% Generator Unit Types
mpc.gentype = {
'UN';
'UN';
};

%% Generator Fuel Types
mpc.genfuel = {
'unknown';
'unknown';
};
